12

C      1.270700000        -0.544200000        -0.000700000
C      1.106600000         0.828400000         0.000600000
C     -0.164100000         1.372600000         0.000000000
C     -1.270700000         0.544200000         0.000000000
C     -1.106600000        -0.828400000         0.000100000
C      0.164100000        -1.372600000        -0.000200000
H      2.263500000        -0.969300000         0.000200000
H      1.971200000         1.475600000        -0.000100000
H     -0.292300000         2.444900000        -0.000800000
H     -2.263500000         0.969300000        -0.000500000
H     -1.971200000        -1.475600000         0.000000000
H      0.292300000        -2.444900000         0.004400000
