15

N      0.000000000        -1.187419000         4.000000000
N      0.000000000         0.000000000         4.000000000
N      0.000000000         1.187419000         4.000000000
C       1.380000      0.000000      0.000000
C       0.690000      1.195115      0.000000
C      -0.690000      1.195115      0.000000
C      -1.380000      0.000000      0.000000
C      -0.690000     -1.195115      0.000000
C       0.690000     -1.195115      0.000000
H       2.460000      0.000000      0.000000
H       1.230000      2.130423      0.000000
H      -1.230000      2.130423      0.000000
H      -2.460000      0.000000      0.000000
H      -1.230000     -2.130423      0.000000
H       1.230000     -2.130423      0.000000
