  171
 
 H     1.076358    -4.285487     7.697486
 H    -1.076358     4.285487     7.697486
 H    -1.076358    -4.285487     7.697486
 H     3.173162    -3.074897     7.697486
 H     4.249520    -1.210590     7.697486
 H     4.249520     1.210590     7.697486
 H     3.173162     3.074897     7.697486
 H    -4.249520     1.210590     7.697486
 H    -4.249520    -1.210590     7.697486
 H    -3.173162    -3.074897     7.697486
 H     1.076358     4.285487     7.697486
 H    -3.173162     3.074897     7.697486
 C    -1.493991     3.970994     6.747556
 C    -2.691986     3.279331     6.747556
 C    -4.185977     0.691663     6.747556
 C    -4.185977    -0.691663     6.747556
 C    -2.691986    -3.279331     6.747556
 C    -1.493991    -3.970994     6.747556
 C     1.493991    -3.970994     6.747556
 C     2.691986    -3.279331     6.747556
 C     4.185977    -0.691663     6.747556
 C     4.185977     0.691663     6.747556
 C     2.691986     3.279331     6.747556
 C     1.493991     3.970994     6.747556
 C     0.731007     4.113935     5.554659
 C    -0.731007     4.113935     5.554659
 C    -3.197269     2.690038     5.554659
 C    -3.928276     1.423897     5.554659
 C    -3.928276    -1.423897     5.554659
 C    -3.197269    -2.690038     5.554659
 C    -0.731007    -4.113935     5.554659
 C     0.731007    -4.113935     5.554659
 C     3.197269    -2.690038     5.554659
 C     3.928276    -1.423897     5.554659
 C     3.928276     1.423897     5.554659
 C     3.197269     2.690038     5.554659
 C    -1.405127     3.870002     4.326966
 C    -2.648957     3.151877     4.326966
 C    -4.054084     0.718125     4.326966
 C    -4.054084    -0.718125     4.326966
 C    -2.648957    -3.151877     4.326966
 C    -1.405127    -3.870002     4.326966
 C     1.405127    -3.870002     4.326966
 C     2.648957    -3.151877     4.326966
 C     4.054084    -0.718125     4.326966
 C     4.054084     0.718125     4.326966
 C     2.648957     3.151877     4.326966
 C     1.405127     3.870002     4.326966
 C     0.712156     4.048246     3.079759
 C    -0.712156     4.048246     3.079759
 C    -3.149806     2.640868     3.079759
 C    -3.861962     1.407378     3.079759
 C    -3.861962    -1.407378     3.079759
 C    -3.149806    -2.640868     3.079759
 C    -0.712156    -4.048246     3.079759
 C     0.712156    -4.048246     3.079759
 C     3.149806    -2.640868     3.079759
 C     3.861962    -1.407378     3.079759
 C     3.861962     1.407378     3.079759
 C     3.149806     2.640868     3.079759
 C    -1.408155     3.882127     1.849562
 C    -2.657943     3.160562     1.849562
 C    -4.066098     0.721565     1.849562
 C    -4.066098    -0.721565     1.849562
 C    -2.657943    -3.160562     1.849562
 C    -1.408155    -3.882127     1.849562
 C     1.408155    -3.882127     1.849562
 C     2.657943    -3.160562     1.849562
 C     4.066098    -0.721565     1.849562
 C     4.066098     0.721565     1.849562
 C     2.657943     3.160562     1.849562
 C     1.408155     3.882127     1.849562
 C     0.715685     4.062750     0.620734
 C    -0.715685     4.062750     0.620734
 C    -3.160602     2.651176     0.620734
 C    -3.876287     1.411574     0.620734
 C    -3.876287    -1.411574     0.620734
 C    -3.160602    -2.651176     0.620734
 C    -0.715685    -4.062750     0.620734
 C     0.715685    -4.062750     0.620734
 C     3.160602    -2.651176     0.620734
 C     3.876287    -1.411574     0.620734
 C     3.876287     1.411574     0.620734
 C     3.160602     2.651176     0.620734
 C    -1.411574     3.876287    -0.620734
 C    -2.651176     3.160602    -0.620734
 C    -4.062750     0.715685    -0.620734
 C    -4.062750    -0.715685    -0.620734
 C    -2.651176    -3.160602    -0.620734
 C    -1.411574    -3.876287    -0.620734
 C     1.411574    -3.876287    -0.620734
 C     2.651176    -3.160602    -0.620734
 C     4.062750    -0.715685    -0.620734
 C     4.062750     0.715685    -0.620734
 C     2.651176     3.160602    -0.620734
 C     1.411574     3.876287    -0.620734
 C     0.721565     4.066098    -1.849562
 C    -0.721565     4.066098    -1.849562
 C    -3.160562     2.657943    -1.849562
 C    -3.882127     1.408155    -1.849562
 C    -3.882127    -1.408155    -1.849562
 C    -3.160562    -2.657943    -1.849562
 C    -0.721565    -4.066098    -1.849562
 C     0.721565    -4.066098    -1.849562
 C     3.160562    -2.657943    -1.849562
 C     3.882127    -1.408155    -1.849562
 C     3.882127     1.408155    -1.849562
 C     3.160562     2.657943    -1.849562
 C    -1.407378     3.861962    -3.079759
 C    -2.640868     3.149806    -3.079759
 C    -4.048246     0.712156    -3.079759
 C    -4.048246    -0.712156    -3.079759
 C    -2.640868    -3.149806    -3.079759
 C    -1.407378    -3.861962    -3.079759
 C     1.407378    -3.861962    -3.079759
 C     2.640868    -3.149806    -3.079759
 C     4.048246    -0.712156    -3.079759
 C     4.048246     0.712156    -3.079759
 C     2.640868     3.149806    -3.079759
 C     1.407378     3.861962    -3.079759
 C     0.718125     4.054084    -4.326966
 C    -0.718125     4.054084    -4.326966
 C    -3.151877     2.648957    -4.326966
 C    -3.870002     1.405127    -4.326966
 C    -3.870002    -1.405127    -4.326966
 C    -3.151877    -2.648957    -4.326966
 C    -0.718125    -4.054084    -4.326966
 C     0.718125    -4.054084    -4.326966
 C     3.151877    -2.648957    -4.326966
 C     3.870002    -1.405127    -4.326966
 C     3.870002     1.405127    -4.326966
 C     3.151877     2.648957    -4.326966
 C    -1.423897     3.928276    -5.554659
 C    -2.690038     3.197269    -5.554659
 C    -4.113935     0.731007    -5.554659
 C    -4.113935    -0.731007    -5.554659
 C    -2.690038    -3.197269    -5.554659
 C    -1.423897    -3.928276    -5.554659
 C     1.423897    -3.928276    -5.554659
 C     2.690038    -3.197269    -5.554659
 C     4.113935    -0.731007    -5.554659
 C     4.113935     0.731007    -5.554659
 C     2.690038     3.197269    -5.554659
 C     1.423897     3.928276    -5.554659
 C     0.691663     4.185977    -6.747556
 C    -0.691663     4.185977    -6.747556
 C    -3.279331     2.691986    -6.747556
 C    -3.970994     1.493991    -6.747556
 C    -3.970994    -1.493991    -6.747556
 C    -3.279331    -2.691986    -6.747556
 C    -0.691663    -4.185977    -6.747556
 C     0.691663    -4.185977    -6.747556
 C     3.279331    -2.691986    -6.747556
 C     3.970994    -1.493991    -6.747556
 C     3.970994     1.493991    -6.747556
 C     3.279331     2.691986    -6.747556
 H    -3.074897     3.173162    -7.697486
 H     1.210590     4.249520    -7.697486
 H    -1.210590     4.249520    -7.697486
 H    -4.285487     1.076358    -7.697486
 H    -4.285487    -1.076358    -7.697486
 H    -3.074897    -3.173162    -7.697486
 H    -1.210590    -4.249520    -7.697486
 H     1.210590    -4.249520    -7.697486
 H     3.074897    -3.173162    -7.697486
 H     4.285487    -1.076358    -7.697486
 H     4.285487     1.076358    -7.697486
 H     3.074897     3.173162    -7.697486
 N1    0.000000     0.000000     1.190561
 N2    0.000000     0.000000     0.000000
 N3    0.000000     0.000000    -1.190561
