  143
 
 H     3.785186     0.057583     7.687268
 H    -1.197253    -3.564558     7.686949
 H     1.129869     3.599860     7.686794
 H    -1.087967     3.599774     7.686847
 H    -2.990098    -2.259135     7.687238
 H     1.239136    -3.564286     7.687094
 H     3.032346    -2.259479     7.687369
 H    -3.058849     2.167112     7.686968
 H     3.100089     2.166491     7.687145
 H    -3.743505     0.057919     7.687052
 C     3.097864    -1.718048     6.748757
 C     3.519898    -0.419039     6.748718
 C     2.605050     2.395826     6.748658
 C     1.500674     3.199169     6.748525
 C    -1.458757     3.198957     6.748626
 C    -2.563244     2.396065     6.748701
 C    -3.477327    -0.418676     6.748754
 C    -3.055118    -1.717338     6.748814
 C    -0.661897    -3.458755     6.748534
 C     0.703910    -3.458679     6.748573
 C     0.734356     3.379905     5.541748
 C    -0.692351     3.380053     5.541676
 C    -2.972023     1.722885     5.541769
 C    -3.412592     0.365989     5.541847
 C    -2.541987    -2.314742     5.542022
 C    -1.388039    -3.153999     5.542059
 C     1.430478    -3.154463     5.542227
 C     2.584739    -2.315275     5.542335
 C     3.455198     0.365608     5.542256
 C     3.014248     1.722751     5.542104
 C     2.985019    -1.718537     4.313823
 C     3.428066    -0.352511     4.313724
 C     2.571558     2.288546     4.313697
 C     1.409158     3.131940     4.313424
 C    -1.367609     3.133640     4.313511
 C    -2.529205     2.289027     4.313519
 C    -3.386077    -0.352389     4.313550
 C    -2.943399    -1.718665     4.313752
 C    -0.696579    -3.350039     4.313559
 C     0.739522    -3.351145     4.313718
 C     0.727515     3.334991     3.080127
 C    -0.686511     3.337841     3.080010
 C    -2.933253     1.703844     3.080093
 C    -3.368585     0.358538     3.080183
 C    -2.513787    -2.285355     3.080181
 C    -1.367777    -3.114208     3.080290
 C     1.411619    -3.117870     3.080266
 C     2.555567    -2.285629     3.080337
 C     3.412374     0.358655     3.080320
 C     2.978001     1.704817     3.080173
 C     2.978495    -1.703188     1.842760
 C     3.411153    -0.361408     1.842595
 C     2.557161     2.288693     1.842488
 C     1.412374     3.111545     1.842050
 C    -1.372256     3.118051     1.841979
 C    -2.511689     2.287827     1.841910
 C    -3.368626    -0.361839     1.841985
 C    -2.939176    -1.704653     1.842356
 C    -0.682320    -3.335237     1.842410
 C     0.727430    -3.341083     1.842715
 C     0.732725     3.347080     0.610080
 C    -0.692370     3.351075     0.610187
 C     1.414669    -3.130911     0.610395
 C     2.566601    -2.292421     0.610373
 C     3.424761     0.357589     0.610253
 C     2.988610     1.714092     0.610378
 C    -2.943872     1.713301     0.610127
 C    -3.382141     0.357169     0.610075
 C    -2.526147    -2.292651     0.610346
 C    -1.370616    -3.126521     0.610180
 C     2.986296    -1.713524    -0.614637
 C     3.424479    -0.357300    -0.614516
 C     2.568486     2.292928    -0.614799
 C     1.412765     3.126615    -0.614512
 C    -1.372850     3.131267    -0.614797
 C    -2.524714     2.292622    -0.614747
 C    -3.383067    -0.357786    -0.614570
 C    -2.947098    -1.714411    -0.614800
 C    -0.690719    -3.347384    -0.614467
 C     0.734443    -3.351552    -0.614690
 C     0.724378     3.335890    -1.846620
 C    -0.685355     3.341404    -1.846926
 C    -2.936625     1.703099    -1.846980
 C    -3.369484     0.361473    -1.846810
 C    -2.515381    -2.289011    -1.846649
 C    -1.370748    -3.112275    -1.846232
 C     1.414409    -3.118490    -1.846155
 C     2.554171    -2.288215    -1.846093
 C     3.411515     0.361918    -1.846143
 C     2.981490     1.704778    -1.846505
 C     2.975434    -1.703940    -3.084486
 C     3.411106    -0.358449    -3.084561
 C     2.555814     2.285436    -3.084627
 C     1.409868     3.114807    -3.084773
 C    -1.369601     3.118009    -3.084877
 C    -2.513714     2.285677    -3.084951
 C    -3.370797    -0.358621    -3.084880
 C    -2.936078    -1.704886    -3.084703
 C    -0.685840    -3.335593    -3.084549
 C     0.728471    -3.337995    -3.084430
 C     1.409602    -3.133802    -4.318042
 C     2.571309    -2.289106    -4.318046
 C     3.428471     0.352514    -4.318074
 C     2.985613     1.718862    -4.318268
 C     0.738662     3.350631    -4.318126
 C    -0.697562     3.351564    -4.318315
 C    -2.943355     1.718686    -4.318419
 C    -3.386551     0.352568    -4.318315
 C    -2.529866    -2.288812    -4.318251
 C    -1.367475    -3.132441    -4.317974
 C     3.014089    -1.722814    -5.546321
 C     3.454752    -0.365945    -5.546393
 C     2.583956     2.314963    -5.546612
 C     1.430145     3.154244    -5.546674
 C    -1.388567     3.154423    -5.546937
 C    -2.542671     2.315340    -5.547044
 C    -3.413349    -0.365691    -5.546917
 C    -2.972413    -1.722688    -5.546752
 C    -0.692495    -3.380157    -5.546325
 C     0.734193    -3.380146    -5.546246
 C     0.703866     3.458942    -6.753182
 C    -0.661896     3.458833    -6.753301
 C    -3.055983     1.718044    -6.753494
 C    -3.478020     0.419095    -6.753418
 C    -2.563261    -2.395950    -6.753301
 C    -1.458882    -3.199253    -6.753096
 C     1.500703    -3.198971    -6.753145
 C     2.605180    -2.396040    -6.753202
 C     3.519367     0.418840    -6.753266
 C     3.097244     1.717525    -6.753378
 H     1.239275     3.565015    -7.691537
 H    -1.197125     3.564677    -7.691786
 H    -2.990764     2.259602    -7.692047
 H    -3.743650    -0.057475    -7.691897
 H    -3.058388    -2.166748    -7.691768
 H    -1.088158    -3.600085    -7.691339
 H     1.130016    -3.599878    -7.691367
 H     3.100833    -2.167184    -7.691470
 H     3.785654    -0.057718    -7.691556
 H     3.032383     2.259358    -7.691788
 N1    0.020615    -0.005052    -1.079111
 N2    0.020707    -0.000237     0.104832
 N3    0.020330     0.004500     1.288827
